 Abaqus/Standard 6.14-6                  DATE 30-Aug-2017 TIME 15:45:59
 SUMMARY OF JOB INFORMATION:
 STEP  INC ATT SEVERE EQUIL TOTAL  TOTAL      STEP       INC OF       DOF    IF
               DISCON ITERS ITERS  TIME/    TIME/LPF    TIME/LPF    MONITOR RIKS
               ITERS               FREQ
   1     1   1     0     3     3  0.0100     0.0100     0.01000   
   1     2   1     0     1     1  0.0200     0.0200     0.01000   
   1     3   1     0     1     1  0.0350     0.0350     0.01500   
   1     4   1     0     1     1  0.0575     0.0575     0.02250   
   1     5   1     0     4     4  0.0912     0.0912     0.03375   
   1     6   1     0     6     6  0.142      0.142      0.05063   
   1     7   1     0     3     3  0.193      0.193      0.05063   
   1     8   1     0     3     3  0.243      0.243      0.05063   
   1     9   1U    0     1     1  0.243      0.243      0.07594   
   1     9   2     0     2     2  0.281      0.281      0.03797   
   1    10   1U    0     2     2  0.281      0.281      0.05695   
   1    10   2     0     2     2  0.310      0.310      0.02848   
   1    11   1     0     2     2  0.352      0.352      0.04271   
   1    12   1U    0     1     1  0.352      0.352      0.06407   
   1    12   2     0     2     2  0.384      0.384      0.03204   
   1    13   1     0     2     2  0.432      0.432      0.04805   
   1    14   1U    0     1     1  0.432      0.432      0.07208   
   1    14   2     0     2     2  0.468      0.468      0.03604   
   1    15   1     0     2     2  0.522      0.522      0.05406   
   1    16   1U    0     1     1  0.522      0.522      0.08109   
   1    16   2     0     2     2  0.563      0.563      0.04055   
   1    17   1     0     2     2  0.624      0.624      0.06082   
   1    18   1U    0     1     1  0.624      0.624      0.09123   
   1    18   2     0     2     2  0.669      0.669      0.04561   
   1    19   1U    0     1     1  0.669      0.669      0.06842   
   1    19   2     0     2     2  0.704      0.704      0.03421   
   1    20   1     0     2     2  0.755      0.755      0.05132   
   1    21   1U    0     1     1  0.755      0.755      0.07697   
   1    21   2     0     2     2  0.793      0.793      0.03849   
   1    22   1     0     2     2  0.851      0.851      0.05773   
   1    23   1U    0     1     1  0.851      0.851      0.08660   
   1    23   2     0     2     2  0.894      0.894      0.04330   
   1    24   1U    0     1     1  0.894      0.894      0.06495   
   1    24   2     0     1     1  0.927      0.927      0.03247   
   1    25   1     0     2     2  0.976      0.976      0.04871   
   1    26   1U    0     1     1  0.976      0.976      0.07306   
   1    26   2     0     2     2  1.01       1.01       0.03653   
   1    27   1     0     2     2  1.07       1.07       0.05480   
   1    28   1U    0     1     1  1.07       1.07       0.08220   
   1    28   2     0     2     2  1.11       1.11       0.04110   
   1    29   1     0     2     2  1.17       1.17       0.06165   
   1    30   1U    0     1     1  1.17       1.17       0.09247   
   1    30   2     0     2     2  1.22       1.22       0.04624   
   1    31   1U    0     1     1  1.22       1.22       0.06935   
   1    31   2     0     1     1  1.25       1.25       0.03468   
   1    32   1     0     2     2  1.30       1.30       0.05202   
   1    33   1U    0     1     1  1.30       1.30       0.07802   
   1    33   2     0     1     1  1.34       1.34       0.03901   
   1    34   1     0     2     2  1.40       1.40       0.05852   
   1    35   1U    0     1     1  1.40       1.40       0.08778   
   1    35   2     0     2     2  1.44       1.44       0.04389   
   1    36   1     0     2     2  1.51       1.51       0.06583   
   1    37   1U    0     1     1  1.51       1.51       0.09875   
   1    37   2     0     2     2  1.56       1.56       0.04937   
   1    38   1U    0     1     1  1.56       1.56       0.07406   
   1    38   2     0     1     1  1.60       1.60       0.03703   
   1    39   1     0     2     2  1.65       1.65       0.05555   
   1    40   1U    0     1     1  1.65       1.65       0.08332   
   1    40   2     0     2     2  1.69       1.69       0.04166   
   1    41   1     0     1     1  1.76       1.76       0.06249   
   1    42   1U    0     1     1  1.76       1.76       0.09373   
   1    42   2     0     2     2  1.80       1.80       0.04687   
   1    43   1     0     2     2  1.87       1.87       0.07030   
   1    44   1U    0     1     1  1.87       1.87       0.1000    
   1    44   2     0     2     2  1.92       1.92       0.05000   
   1    45   1U    0     1     1  1.92       1.92       0.07500   
   1    45   2     0     2     2  1.96       1.96       0.03750   
   1    46   1     0     2     2  2.02       2.02       0.05625   
   1    47   1U    0     1     1  2.02       2.02       0.08438   
   1    47   2     0     2     2  2.06       2.06       0.04219   
   1    48   1     0     2     2  2.12       2.12       0.06328   
   1    49   1U    0     1     1  2.12       2.12       0.09492   
   1    49   2     0     2     2  2.17       2.17       0.04746   
   1    50   1     0     2     2  2.24       2.24       0.07119   
   1    51   1U    0     1     1  2.24       2.24       0.1000    
   1    51   2     0     2     2  2.29       2.29       0.05000   
   1    52   1     0     2     2  2.37       2.37       0.07500   
   1    53   1U    0     1     1  2.37       2.37       0.1000    
   1    53   2     0     2     2  2.42       2.42       0.05000   
   1    54   1     0     2     2  2.49       2.49       0.07500   
   1    55   1U    0     1     1  2.49       2.49       0.1000    
   1    55   2     0     2     2  2.54       2.54       0.05000   
   1    56   1     0     3     3  2.62       2.62       0.07500   
   1    57   1U    0     1     1  2.62       2.62       0.1000    
   1    57   2     0     2     2  2.67       2.67       0.05000   
   1    58   1     0     2     2  2.74       2.74       0.07500   
   1    59   1U    0     1     1  2.74       2.74       0.1000    
   1    59   2     0     2     2  2.79       2.79       0.05000   
   1    60   1     0     2     2  2.87       2.87       0.07500   
   1    61   1U    0     1     1  2.87       2.87       0.1000    
   1    61   2     0     2     2  2.92       2.92       0.05000   
   1    62   1     0     3     3  2.99       2.99       0.07500   
   1    63   1U    0     1     1  2.99       2.99       0.1000    
   1    63   2     0     2     2  3.04       3.04       0.05000   
   1    64   1     0     2     2  3.12       3.12       0.07500   
   1    65   1U    0     1     1  3.12       3.12       0.1000    
   1    65   2     0     2     2  3.17       3.17       0.05000   
   1    66   1     0     2     2  3.24       3.24       0.07500   
   1    67   1U    0     1     1  3.24       3.24       0.1000    
   1    67   2     0     2     2  3.29       3.29       0.05000   
   1    68   1     0     2     2  3.37       3.37       0.07500   
   1    69   1U    0     1     1  3.37       3.37       0.1000    
   1    69   2     0     2     2  3.42       3.42       0.05000   
   1    70   1     0     2     2  3.49       3.49       0.07500   
   1    71   1U    0     1     1  3.49       3.49       0.1000    
   1    71   2     0     2     2  3.54       3.54       0.05000   
   1    72   1     0     2     2  3.62       3.62       0.07500   
   1    73   1U    0     1     1  3.62       3.62       0.1000    
   1    73   2     0     2     2  3.67       3.67       0.05000   
   1    74   1     0     2     2  3.74       3.74       0.07500   
   1    75   1U    0     1     1  3.74       3.74       0.1000    
   1    75   2     0     2     2  3.79       3.79       0.05000   
   1    76   1     0     2     2  3.87       3.87       0.07500   
   1    77   1U    0     1     1  3.87       3.87       0.1000    
   1    77   2     0     2     2  3.92       3.92       0.05000   
   1    78   1     0     2     2  3.99       3.99       0.07500   
   1    79   1U    0     1     1  3.99       3.99       0.1000    
   1    79   2     0     2     2  4.04       4.04       0.05000   
   1    80   1     0     2     2  4.12       4.12       0.07500   
   1    81   1U    0     1     1  4.12       4.12       0.1000    
   1    81   2     0     2     2  4.17       4.17       0.05000   
   1    82   1     0     2     2  4.24       4.24       0.07500   
   1    83   1U    0     1     1  4.24       4.24       0.1000    
   1    83   2     0     2     2  4.29       4.29       0.05000   
   1    84   1     0     2     2  4.37       4.37       0.07500   
   1    85   1U    0     1     1  4.37       4.37       0.1000    
   1    85   2     0     2     2  4.42       4.42       0.05000   
   1    86   1     0     3     3  4.49       4.49       0.07500   
   1    87   1U    0     1     1  4.49       4.49       0.1000    
   1    87   2     0     2     2  4.54       4.54       0.05000   
   1    88   1     0     2     2  4.62       4.62       0.07500   
   1    89   1U    0     1     1  4.62       4.62       0.1000    
   1    89   2     0     2     2  4.67       4.67       0.05000   
   1    90   1     0     2     2  4.74       4.74       0.07500   
   1    91   1U    0     1     1  4.74       4.74       0.1000    
   1    91   2     0     2     2  4.79       4.79       0.05000   
   1    92   1     0     2     2  4.87       4.87       0.07500   
   1    93   1U    0     1     1  4.87       4.87       0.1000    
   1    93   2     0     3     3  4.92       4.92       0.05000   
   1    94   1U    0     2     2  4.92       4.92       0.07500   
   1    94   2     0     5     5  4.95       4.95       0.03750   
   1    95   1U    0     6     6  4.95       4.95       0.03750   
   1    95   2     0     2     2  4.96       4.96       0.009375  
   1    96   1     0     2     2  4.97       4.97       0.009375  
   1    97   1     0     2     2  4.99       4.99       0.01406   
   1    98   1     0     2     2  5.00       5.00       0.01361   
                          
 THE ANALYSIS HAS COMPLETED SUCCESSFULLY
