 Abaqus/Standard 6.14-6                  DATE 26-Aug-2017 TIME 18:09:51
 SUMMARY OF JOB INFORMATION:
 STEP  INC ATT SEVERE EQUIL TOTAL  TOTAL      STEP       INC OF       DOF    IF
               DISCON ITERS ITERS  TIME/    TIME/LPF    TIME/LPF    MONITOR RIKS
               ITERS               FREQ
   1     1   1     0     2     2  0.0100     0.0100     0.01000   
   1     2   1     0     1     1  0.0200     0.0200     0.01000   
   1     3   1     0     1     1  0.0350     0.0350     0.01500   
   1     4   1     0     1     1  0.0575     0.0575     0.02250   
   1     5   1     0     5     5  0.0912     0.0912     0.03375   
   1     6   1     0     3     3  0.125      0.125      0.03375   
   1     7   1     0     3     3  0.159      0.159      0.03375   
   1     8   1     0     3     3  0.209      0.209      0.05063   
   1     9   1U    0     1     1  0.209      0.209      0.07594   
   1     9   2     0     3     3  0.247      0.247      0.03797   
   1    10   1     0     3     3  0.304      0.304      0.05695   
   1    11   1U    0     1     1  0.304      0.304      0.08543   
   1    11   2     0     3     3  0.347      0.347      0.04271   
   1    12   1     0     3     3  0.411      0.411      0.06407   
   1    13   1U    0     1     1  0.411      0.411      0.09611   
   1    13   2     0     2     2  0.459      0.459      0.04805   
   1    14   1     0     3     3  0.531      0.531      0.07208   
   1    15   1U    0     1     1  0.531      0.531      0.1000    
   1    15   2     0     2     2  0.581      0.581      0.05000   
   1    16   1     0     2     2  0.656      0.656      0.07500   
   1    17   1U    0     1     1  0.656      0.656      0.1000    
   1    17   2     0     2     2  0.706      0.706      0.05000   
   1    18   1     0     2     2  0.781      0.781      0.07500   
   1    19   1U    0     1     1  0.781      0.781      0.1000    
   1    19   2     0     2     2  0.831      0.831      0.05000   
   1    20   1     0     2     2  0.906      0.906      0.07500   
   1    21   1U    0     1     1  0.906      0.906      0.1000    
   1    21   2     0     2     2  0.956      0.956      0.05000   
   1    22   1     0     2     2  1.03       1.03       0.07500   
   1    23   1U    0     1     1  1.03       1.03       0.1000    
   1    23   2     0     2     2  1.08       1.08       0.05000   
   1    24   1     0     2     2  1.16       1.16       0.07500   
   1    25   1U    0     1     1  1.16       1.16       0.1000    
   1    25   2     0     2     2  1.21       1.21       0.05000   
   1    26   1     0     2     2  1.28       1.28       0.07500   
   1    27   1U    0     1     1  1.28       1.28       0.1000    
   1    27   2     0     2     2  1.33       1.33       0.05000   
   1    28   1     0     2     2  1.41       1.41       0.07500   
   1    29   1U    0     1     1  1.41       1.41       0.1000    
   1    29   2     0     2     2  1.46       1.46       0.05000   
   1    30   1     0     2     2  1.53       1.53       0.07500   
   1    31   1U    0     1     1  1.53       1.53       0.1000    
   1    31   2     0     3     3  1.58       1.58       0.05000   
   1    32   1     0     2     2  1.66       1.66       0.07500   
   1    33   1U    0     1     1  1.66       1.66       0.1000    
   1    33   2     0     3     3  1.71       1.71       0.05000   
   1    34   1     0     2     2  1.78       1.78       0.07500   
   1    35   1U    0     1     1  1.78       1.78       0.1000    
   1    35   2     0     3     3  1.83       1.83       0.05000   
   1    36   1     0     2     2  1.91       1.91       0.07500   
   1    37   1U    0     1     1  1.91       1.91       0.1000    
   1    37   2     0     2     2  1.96       1.96       0.05000   
   1    38   1     0     3     3  2.03       2.03       0.07500   
   1    39   1U    0     1     1  2.03       2.03       0.1000    
   1    39   2     0     2     2  2.08       2.08       0.05000   
   1    40   1     0     2     2  2.16       2.16       0.07500   
   1    41   1U    0     1     1  2.16       2.16       0.1000    
   1    41   2     0     2     2  2.21       2.21       0.05000   
   1    42   1     0     2     2  2.28       2.28       0.07500   
   1    43   1U    0     1     1  2.28       2.28       0.1000    
   1    43   2     0     2     2  2.33       2.33       0.05000   
   1    44   1     0     2     2  2.41       2.41       0.07500   
   1    45   1U    0     1     1  2.41       2.41       0.1000    
   1    45   2     0     2     2  2.46       2.46       0.05000   
   1    46   1     0     2     2  2.53       2.53       0.07500   
   1    47   1U    0     1     1  2.53       2.53       0.1000    
   1    47   2     0     2     2  2.58       2.58       0.05000   
   1    48   1     0     2     2  2.66       2.66       0.07500   
   1    49   1U    0     1     1  2.66       2.66       0.1000    
   1    49   2     0     3     3  2.71       2.71       0.05000   
   1    50   1     0     2     2  2.78       2.78       0.07500   
   1    51   1U    0     1     1  2.78       2.78       0.1000    
   1    51   2     0     2     2  2.83       2.83       0.05000   
   1    52   1     0     2     2  2.91       2.91       0.07500   
   1    53   1U    0     1     1  2.91       2.91       0.1000    
   1    53   2     0     3     3  2.96       2.96       0.05000   
   1    54   1     0     3     3  3.03       3.03       0.07500   
   1    55   1U    0     1     1  3.03       3.03       0.1000    
   1    55   2     0     2     2  3.08       3.08       0.05000   
   1    56   1     0     3     3  3.16       3.16       0.07500   
   1    57   1U    0     1     1  3.16       3.16       0.1000    
   1    57   2     0     2     2  3.21       3.21       0.05000   
   1    58   1     0     2     2  3.28       3.28       0.07500   
   1    59   1U    0     1     1  3.28       3.28       0.1000    
   1    59   2     0     2     2  3.33       3.33       0.05000   
   1    60   1     0     3     3  3.41       3.41       0.07500   
   1    61   1U    0     1     1  3.41       3.41       0.1000    
   1    61   2     0     3     3  3.46       3.46       0.05000   
   1    62   1     0     3     3  3.53       3.53       0.07500   
   1    63   1U    0     1     1  3.53       3.53       0.1000    
   1    63   2     0     3     3  3.58       3.58       0.05000   
   1    64   1     0     3     3  3.66       3.66       0.07500   
   1    65   1U    0     1     1  3.66       3.66       0.1000    
   1    65   2     0     3     3  3.71       3.71       0.05000   
   1    66   1     0     3     3  3.78       3.78       0.07500   
   1    67   1U    0     1     1  3.78       3.78       0.1000    
   1    67   2     0     2     2  3.83       3.83       0.05000   
   1    68   1     0     3     3  3.91       3.91       0.07500   
   1    69   1U    0     1     1  3.91       3.91       0.1000    
   1    69   2     0     3     3  3.96       3.96       0.05000   
   1    70   1     0     3     3  4.03       4.03       0.07500   
   1    71   1U    0     1     1  4.03       4.03       0.1000    
   1    71   2     0     2     2  4.08       4.08       0.05000   
   1    72   1     0     3     3  4.16       4.16       0.07500   
   1    73   1U    0     1     1  4.16       4.16       0.1000    
   1    73   2     0     2     2  4.21       4.21       0.05000   
   1    74   1     0     2     2  4.28       4.28       0.07500   
   1    75   1U    0     1     1  4.28       4.28       0.1000    
   1    75   2     0     3     3  4.33       4.33       0.05000   
   1    76   1     0     2     2  4.41       4.41       0.07500   
   1    77   1U    0     1     1  4.41       4.41       0.1000    
   1    77   2     0     2     2  4.46       4.46       0.05000   
   1    78   1U    0     1     1  4.46       4.46       0.07500   
   1    78   2     0     2     2  4.49       4.49       0.03750   
   1    79   1     0     3     3  4.55       4.55       0.05625   
   1    80   1U    0     2     2  4.55       4.55       0.08438   
   1    80   2     0     2     2  4.59       4.59       0.04219   
   1    81   1     0     3     3  4.66       4.66       0.06328   
   1    82   1U    0     1     1  4.66       4.66       0.09492   
   1    82   2     0     3     3  4.70       4.70       0.04746   
   1    83   1     0     3     3  4.77       4.77       0.07119   
   1    84   1U    0     1     1  4.77       4.77       0.1000    
   1    84   2     0     3     3  4.82       4.82       0.05000   
   1    85   1     0     3     3  4.90       4.90       0.07500   
   1    86   1U    0     1     1  4.90       4.90       0.1000    
   1    86   2     0     3     3  4.95       4.95       0.05000   
   1    87   1     0     3     3  5.00       5.00       0.05091   
                          
 THE ANALYSIS HAS COMPLETED SUCCESSFULLY
